*Heading
** Job name: 3G-V1 Model name: 3G-V1
** Generated by: Abaqus/CAE Version 6.8-1
*Preprint, echo=NO, model=NO, history=NO, contact=NO
**
** PARTS
**
*Part, name=PART-1
*Node
	1,	0,	0
	2,	89,	0
	3,	0,	63
	4,	89,	63
	5,	1,	0
	6,	1,	63
	7,	2,	0
	8,	2,	63
	9,	3,	0
	10,	3,	63
	11,	4,	0
	12,	4,	63
	13,	5,	0
	14,	5,	63
	15,	6,	0
	16,	6,	63
	17,	7,	0
	18,	7,	63
	19,	8,	0
	20,	8,	63
** ... 540 like lines cut
*Element, type=CPE3
1,	315,	313,	23
2,	519,	453,	455
3,	538,	488,	536
4,	534,	532,	556
5,	534,	480,	532
6,	188,	190,	396
7,	63,	333,	61
8,	457,	321,	323
9,	471,	529,	527
10,	351,	473,	471
11,	523,	461,	463
12,	411,	499,	501
13,	495,	399,	493
14,	511,	547,	513
15,	452,	308,	449
16,	64,	334,	336
17,	475,	473,	355
18,	16,	310,	312
19,	526,	554,	528
20,	545,	509,	507
** ... 794 like lines cut
*Elset, elset=M_-1237980
1, 2, 3, 4, 5, 6, 7, 8, 9, 10,
11, 12, 13, 14, 15, 16, 17, 18, 19, 20,
21, 22, 23, 24, 25, 26, 27, 28, 29, 30,
31, 32, 33, 34, 35, 36, 37, 38, 39, 40,
41, 42, 43, 44, 45, 46, 47, 48, 49, 50,
51, 52, 53, 54, 55, 56, 57, 58, 59, 60,
61, 62, 63, 64, 65, 66, 67, 68, 69, 70,
71, 72, 73, 74, 75, 76, 77, 78, 79, 80,
81, 82, 83, 84, 85, 86, 87, 88, 89, 90,
91, 92, 93, 94, 95, 96, 97, 98, 99, 100,
101, 102, 103, 104, 105, 106, 107, 108, 109, 110,
111, 112, 113, 114, 115, 116, 117, 118, 119, 120,
121, 122, 123, 124, 125, 126, 127, 128, 129, 130,
131, 132, 133, 134, 135, 136, 137, 138, 139, 140,
141, 142, 143, 144, 145, 146, 147, 148, 149, 150,
151, 152, 153, 154, 155, 156, 157, 158, 159, 160,
161, 162, 163, 164, 165, 166, 167, 168, 169, 170,
171, 172, 173, 174, 175, 176, 177, 178, 179, 180,
181, 182, 183, 184, 185, 186, 187, 188, 189, 190,
191, 192, 193, 194, 195, 196, 197, 198, 199, 200,
** ... 62 like lines cut

*Nset, nset=N1
1, 3, 181, 183, 185, 187, 189, 191, 193, 195, 
197, 199, 201, 203, 205, 207, 209, 211, 213, 215, 
217, 219, 221, 223, 225, 227, 229, 231, 233, 235, 
237, 239, 241, 243, 245, 247, 249, 251, 253, 255, 
257, 259, 261, 263, 265, 267, 269, 271, 273, 275, 
277, 279, 281, 283, 285, 287, 289, 291, 293, 295, 
297, 299, 301, 303
*Nset, nset=N2
2, 4, 182, 184, 186, 188, 190, 192, 194, 196, 
198, 200, 202, 204, 206, 208, 210, 212, 214, 216, 
218, 220, 222, 224, 226, 228, 230, 232, 234, 236, 
238, 240, 242, 244, 246, 248, 250, 252, 254, 256, 
258, 260, 262, 264, 266, 268, 270, 272, 274, 276, 
278, 280, 282, 284, 286, 288, 290, 292, 294, 296, 
298, 300, 302, 304
*Nset, nset=N3
1, 2, 5, 7, 9, 11, 13, 15, 17, 19, 
21, 23, 25, 27, 29, 31, 33, 35, 37, 39, 
41, 43, 45, 47, 49, 51, 53, 55, 57, 59, 
61, 63, 65, 67, 69, 71, 73, 75, 77, 79, 
81, 83, 85, 87, 89, 91, 93, 95, 97, 99, 
101, 103, 105, 107, 109, 111, 113, 115, 117, 119, 
121, 123, 125, 127, 129, 131, 133, 135, 137, 139, 
141, 143, 145, 147, 149, 151, 153, 155, 157, 159, 
161, 163, 165, 167, 169, 171, 173, 175, 177, 179
*Nset, nset=N4
3, 4, 6, 8, 10, 12, 14, 16, 18, 20, 
22, 24, 26, 28, 30, 32, 34, 36, 38, 40, 
42, 44, 46, 48, 50, 52, 54, 56, 58, 60, 
62, 64, 66, 68, 70, 72, 74, 76, 78, 80, 
82, 84, 86, 88, 90, 92, 94, 96, 98, 100, 
102, 104, 106, 108, 110, 112, 114, 116, 118, 120, 
122, 124, 126, 128, 130, 132, 134, 136, 138, 140, 
142, 144, 146, 148, 150, 152, 154, 156, 158, 160, 
162, 164, 166, 168, 170, 172, 174, 176, 178, 180
*Nset, nset=N5

** Section: Section--1237980-M_-1237980
*Solid Section, elset=M_-1237980, material=M_-1237980
1.,
*End Part
**
**
** ASSEMBLY
**
*Assembly, name=Assembly
**
*Instance, name=PART-1-1, part=PART-1
*End Instance
**
*End Assembly
*Material, name=M_-1237980
*Elastic
 2.1e+11, 0.3
*Plastic
 7.18936e+08,     0.
** ----------------------------------------------------------------
**
** STEP: Step-1
**
*Step, name=Step-1, nlgeom=YES
*Static
1., 1., 1e-05, 1.
**
** BOUNDARY CONDITIONS
**
** Name: BC-1 Type: Displacement/Rotation
*Boundary
PART-1-1.N2, 1, 1, -15.
** Name: BC-2 Type: Displacement/Rotation
*Boundary
PART-1-1.N1, 1, 1
PART-1-1.N1, 2, 2
PART-1-1.N1, 6, 6
**
** OUTPUT REQUESTS
**
*Restart, write, frequency=0
**
** FIELD OUTPUT: F-Output-1
**
*Output, field, variable=PRESELECT
**
** HISTORY OUTPUT: H-Output-1
**
*Output, history, variable=PRESELECT
*End Step
